<?xml version="1.0" encoding="UTF-8"?>

<!-- generated on Tue Jun 12 02:08:24 2018 by SUMO jtrrouter Version 0.32.0
<?xml version="1.0" encoding="UTF-8"?>

<configuration xmlns:xsi="http://www.w3.org/2001/XMLSchema-instance" xsi:noNamespaceSchemaLocation="http://sumo.dlr.de/xsd/jtrrouterConfiguration.xsd">

    <input>
        <net-file value="project.net.xml"/>
        <route-files value="/home/vighnesh/sumo-project/sumopack/docs/tutorial/project/flow1.rou.xml"/>
    </input>

    <output>
        <output-file value="/home/vighnesh/sumo-project/sumopack/docs/tutorial/project/my.rou.xml"/>
    </output>

    <processing>
        <turn-defaults value="30,50,20"/>
    </processing>

    <time>
        <begin value="0"/>
        <end value="2000"/>
    </time>

</configuration>
-->

<routes >
    <vType id="bus" length="10.00" maxSpeed="13.88" vClass="bus" accel="0.4" decel="2.0"/>
    <vehicle id="b1.0" type="bus" depart="0.00" color="yellow">
        <route edges="E10 E04"/>
    </vehicle>
    <vehicle id="b2.0" type="bus" depart="0.00" color="yellow">
        <route edges="E20 E04"/>
    </vehicle>
    <vehicle id="b3.0" type="bus" depart="0.00" color="yellow">
        <route edges="E30 E04"/>
    </vehicle>
    <vehicle id="b4.0" type="bus" depart="0.00" color="yellow">
        <route edges="E40 E02"/>
    </vehicle>
    <vType id="pkw" length="5.00" maxSpeed="23.00" vClass="passenger" accel="0.8" decel="4.5"/>
    <vehicle id="p1.0" type="pkw" depart="0.00" color="red">
        <route edges="E10 E03"/>
    </vehicle>
    <vehicle id="p2.0" type="pkw" depart="0.00" color="magenta">
        <route edges="E20 E03"/>
    </vehicle>
    <vehicle id="p3.0" type="pkw" depart="0.00" color="blue">
        <route edges="E30 E01"/>
    </vehicle>
    <vehicle id="p4.0" type="pkw" depart="0.00" color="white">
        <route edges="E40 E01"/>
    </vehicle>
    <vehicle id="b1.1" type="bus" depart="1.33" color="yellow">
        <route edges="E10 E03"/>
    </vehicle>
    <vehicle id="b2.1" type="bus" depart="1.33" color="yellow">
        <route edges="E20 E04"/>
    </vehicle>
    <vehicle id="b3.1" type="bus" depart="1.33" color="yellow">
        <route edges="E30 E04"/>
    </vehicle>
    <vehicle id="b4.1" type="bus" depart="1.33" color="yellow">
        <route edges="E40 E02"/>
    </vehicle>
    <vehicle id="p1.1" type="pkw" depart="1.33" color="red">
        <route edges="E10 E03"/>
    </vehicle>
    <vehicle id="p2.1" type="pkw" depart="1.33" color="magenta">
        <route edges="E20 E04"/>
    </vehicle>
    <vehicle id="p3.1" type="pkw" depart="1.33" color="blue">
        <route edges="E30 E01"/>
    </vehicle>
    <vehicle id="p4.1" type="pkw" depart="1.33" color="white">
        <route edges="E40 E01"/>
    </vehicle>
    <vehicle id="b1.2" type="bus" depart="2.66" color="yellow">
        <route edges="E10 E02"/>
    </vehicle>
    <vehicle id="b2.2" type="bus" depart="2.66" color="yellow">
        <route edges="E20 E01"/>
    </vehicle>
    <vehicle id="b3.2" type="bus" depart="2.66" color="yellow">
        <route edges="E30 E01"/>
    </vehicle>
    <vehicle id="b4.2" type="bus" depart="2.66" color="yellow">
        <route edges="E40 E02"/>
    </vehicle>
    <vehicle id="p1.2" type="pkw" depart="2.66" color="red">
        <route edges="E10 E02"/>
    </vehicle>
    <vehicle id="p2.2" type="pkw" depart="2.66" color="magenta">
        <route edges="E20 E04"/>
    </vehicle>
    <vehicle id="p3.2" type="pkw" depart="2.66" color="blue">
        <route edges="E30 E01"/>
    </vehicle>
    <vehicle id="p4.2" type="pkw" depart="2.66" color="white">
        <route edges="E40 E02"/>
    </vehicle>
    <vehicle id="b1.3" type="bus" depart="3.99" color="yellow">
        <route edges="E10 E04"/>
    </vehicle>
    <vehicle id="b2.3" type="bus" depart="3.99" color="yellow">
        <route edges="E20 E01"/>
    </vehicle>
    <vehicle id="b3.3" type="bus" depart="3.99" color="yellow">
        <route edges="E30 E02"/>
    </vehicle>
    <vehicle id="b4.3" type="bus" depart="3.99" color="yellow">
        <route edges="E40 E02"/>
    </vehicle>
    <vehicle id="p1.3" type="pkw" depart="3.99" color="red">
        <route edges="E10 E03"/>
    </vehicle>
    <vehicle id="p2.3" type="pkw" depart="3.99" color="magenta">
        <route edges="E20 E03"/>
    </vehicle>
    <vehicle id="p3.3" type="pkw" depart="3.99" color="blue">
        <route edges="E30 E04"/>
    </vehicle>
    <vehicle id="p4.3" type="pkw" depart="3.99" color="white">
        <route edges="E40 E02"/>
    </vehicle>
    <vehicle id="b1.4" type="bus" depart="5.32" color="yellow">
        <route edges="E10 E03"/>
    </vehicle>
    <vehicle id="b2.4" type="bus" depart="5.32" color="yellow">
        <route edges="E20 E03"/>
    </vehicle>
    <vehicle id="b3.4" type="bus" depart="5.32" color="yellow">
        <route edges="E30 E02"/>
    </vehicle>
    <vehicle id="b4.4" type="bus" depart="5.32" color="yellow">
        <route edges="E40 E01"/>
    </vehicle>
    <vehicle id="p1.4" type="pkw" depart="5.32" color="red">
        <route edges="E10 E03"/>
    </vehicle>
    <vehicle id="p2.4" type="pkw" depart="5.32" color="magenta">
        <route edges="E20 E04"/>
    </vehicle>
    <vehicle id="p3.4" type="pkw" depart="5.32" color="blue">
        <route edges="E30 E04"/>
    </vehicle>
    <vehicle id="p4.4" type="pkw" depart="5.32" color="white">
        <route edges="E40 E01"/>
    </vehicle>
    <vehicle id="b1.5" type="bus" depart="6.65" color="yellow">
        <route edges="E10 E03"/>
    </vehicle>
    <vehicle id="b2.5" type="bus" depart="6.65" color="yellow">
        <route edges="E20 E01"/>
    </vehicle>
    <vehicle id="b3.5" type="bus" depart="6.65" color="yellow">
        <route edges="E30 E04"/>
    </vehicle>
    <vehicle id="b4.5" type="bus" depart="6.65" color="yellow">
        <route edges="E40 E01"/>
    </vehicle>
    <vehicle id="p1.5" type="pkw" depart="6.65" color="red">
        <route edges="E10 E02"/>
    </vehicle>
    <vehicle id="p2.5" type="pkw" depart="6.65" color="magenta">
        <route edges="E20 E04"/>
    </vehicle>
    <vehicle id="p3.5" type="pkw" depart="6.65" color="blue">
        <route edges="E30 E04"/>
    </vehicle>
    <vehicle id="p4.5" type="pkw" depart="6.65" color="white">
        <route edges="E40 E03"/>
    </vehicle>
    <vehicle id="b1.6" type="bus" depart="7.98" color="yellow">
        <route edges="E10 E02"/>
    </vehicle>
    <vehicle id="b2.6" type="bus" depart="7.98" color="yellow">
        <route edges="E20 E04"/>
    </vehicle>
    <vehicle id="b3.6" type="bus" depart="7.98" color="yellow">
        <route edges="E30 E01"/>
    </vehicle>
    <vehicle id="b4.6" type="bus" depart="7.98" color="yellow">
        <route edges="E40 E02"/>
    </vehicle>
    <vehicle id="p1.6" type="pkw" depart="7.98" color="red">
        <route edges="E10 E03"/>
    </vehicle>
    <vehicle id="p2.6" type="pkw" depart="7.98" color="magenta">
        <route edges="E20 E01"/>
    </vehicle>
    <vehicle id="p3.6" type="pkw" depart="7.98" color="blue">
        <route edges="E30 E02"/>
    </vehicle>
    <vehicle id="p4.6" type="pkw" depart="7.98" color="white">
        <route edges="E40 E02"/>
    </vehicle>
    <vehicle id="b1.7" type="bus" depart="9.31" color="yellow">
        <route edges="E10 E03"/>
    </vehicle>
    <vehicle id="b2.7" type="bus" depart="9.31" color="yellow">
        <route edges="E20 E04"/>
    </vehicle>
    <vehicle id="b3.7" type="bus" depart="9.31" color="yellow">
        <route edges="E30 E04"/>
    </vehicle>
    <vehicle id="b4.7" type="bus" depart="9.31" color="yellow">
        <route edges="E40 E03"/>
    </vehicle>
    <vehicle id="p1.7" type="pkw" depart="9.31" color="red">
        <route edges="E10 E02"/>
    </vehicle>
    <vehicle id="p2.7" type="pkw" depart="9.31" color="magenta">
        <route edges="E20 E04"/>
    </vehicle>
    <vehicle id="p3.7" type="pkw" depart="9.31" color="blue">
        <route edges="E30 E04"/>
    </vehicle>
    <vehicle id="p4.7" type="pkw" depart="9.31" color="white">
        <route edges="E40 E01"/>
    </vehicle>
    <vehicle id="b1.8" type="bus" depart="10.64" color="yellow">
        <route edges="E10 E02"/>
    </vehicle>
    <vehicle id="b2.8" type="bus" depart="10.64" color="yellow">
        <route edges="E20 E04"/>
    </vehicle>
    <vehicle id="b3.8" type="bus" depart="10.64" color="yellow">
        <route edges="E30 E02"/>
    </vehicle>
    <vehicle id="b4.8" type="bus" depart="10.64" color="yellow">
        <route edges="E40 E01"/>
    </vehicle>
    <vehicle id="p1.8" type="pkw" depart="10.64" color="red">
        <route edges="E10 E02"/>
    </vehicle>
    <vehicle id="p2.8" type="pkw" depart="10.64" color="magenta">
        <route edges="E20 E01"/>
    </vehicle>
    <vehicle id="p3.8" type="pkw" depart="10.64" color="blue">
        <route edges="E30 E01"/>
    </vehicle>
    <vehicle id="p4.8" type="pkw" depart="10.64" color="white">
        <route edges="E40 E02"/>
    </vehicle>
    <vehicle id="b1.9" type="bus" depart="11.97" color="yellow">
        <route edges="E10 E02"/>
    </vehicle>
    <vehicle id="b2.9" type="bus" depart="11.97" color="yellow">
        <route edges="E20 E04"/>
    </vehicle>
    <vehicle id="b3.9" type="bus" depart="11.97" color="yellow">
        <route edges="E30 E04"/>
    </vehicle>
    <vehicle id="b4.9" type="bus" depart="11.97" color="yellow">
        <route edges="E40 E01"/>
    </vehicle>
    <vehicle id="p1.9" type="pkw" depart="11.97" color="red">
        <route edges="E10 E02"/>
    </vehicle>
    <vehicle id="p2.9" type="pkw" depart="11.97" color="magenta">
        <route edges="E20 E03"/>
    </vehicle>
    <vehicle id="p3.9" type="pkw" depart="11.97" color="blue">
        <route edges="E30 E01"/>
    </vehicle>
    <vehicle id="p4.9" type="pkw" depart="11.97" color="white">
        <route edges="E40 E02"/>
    </vehicle>
    <vehicle id="b1.10" type="bus" depart="13.30" color="yellow">
        <route edges="E10 E02"/>
    </vehicle>
    <vehicle id="b2.10" type="bus" depart="13.30" color="yellow">
        <route edges="E20 E03"/>
    </vehicle>
    <vehicle id="b3.10" type="bus" depart="13.30" color="yellow">
        <route edges="E30 E01"/>
    </vehicle>
    <vehicle id="b4.10" type="bus" depart="13.30" color="yellow">
        <route edges="E40 E02"/>
    </vehicle>
    <vehicle id="p1.10" type="pkw" depart="13.30" color="red">
        <route edges="E10 E03"/>
    </vehicle>
    <vehicle id="p2.10" type="pkw" depart="13.30" color="magenta">
        <route edges="E20 E04"/>
    </vehicle>
    <vehicle id="p3.10" type="pkw" depart="13.30" color="blue">
        <route edges="E30 E01"/>
    </vehicle>
    <vehicle id="p4.10" type="pkw" depart="13.30" color="white">
        <route edges="E40 E03"/>
    </vehicle>
    <vehicle id="b1.11" type="bus" depart="14.63" color="yellow">
        <route edges="E10 E03"/>
    </vehicle>
    <vehicle id="b2.11" type="bus" depart="14.63" color="yellow">
        <route edges="E20 E04"/>
    </vehicle>
    <vehicle id="b3.11" type="bus" depart="14.63" color="yellow">
        <route edges="E30 E01"/>
    </vehicle>
    <vehicle id="b4.11" type="bus" depart="14.63" color="yellow">
        <route edges="E40 E03"/>
    </vehicle>
    <vehicle id="p1.11" type="pkw" depart="14.63" color="red">
        <route edges="E10 E02"/>
    </vehicle>
    <vehicle id="p2.11" type="pkw" depart="14.63" color="magenta">
        <route edges="E20 E04"/>
    </vehicle>
    <vehicle id="p3.11" type="pkw" depart="14.63" color="blue">
        <route edges="E30 E04"/>
    </vehicle>
    <vehicle id="p4.11" type="pkw" depart="14.63" color="white">
        <route edges="E40 E03"/>
    </vehicle>
    <vehicle id="b1.12" type="bus" depart="15.96" color="yellow">
        <route edges="E10 E03"/>
    </vehicle>
    <vehicle id="b2.12" type="bus" depart="15.96" color="yellow">
        <route edges="E20 E01"/>
    </vehicle>
    <vehicle id="b3.12" type="bus" depart="15.96" color="yellow">
        <route edges="E30 E01"/>
    </vehicle>
    <vehicle id="b4.12" type="bus" depart="15.96" color="yellow">
        <route edges="E40 E02"/>
    </vehicle>
    <vehicle id="p1.12" type="pkw" depart="15.96" color="red">
        <route edges="E10 E03"/>
    </vehicle>
    <vehicle id="p2.12" type="pkw" depart="15.96" color="magenta">
        <route edges="E20 E04"/>
    </vehicle>
    <vehicle id="p3.12" type="pkw" depart="15.96" color="blue">
        <route edges="E30 E02"/>
    </vehicle>
    <vehicle id="p4.12" type="pkw" depart="15.96" color="white">
        <route edges="E40 E02"/>
    </vehicle>
    <vehicle id="b1.13" type="bus" depart="17.29" color="yellow">
        <route edges="E10 E04"/>
    </vehicle>
    <vehicle id="b2.13" type="bus" depart="17.29" color="yellow">
        <route edges="E20 E03"/>
    </vehicle>
    <vehicle id="b3.13" type="bus" depart="17.29" color="yellow">
        <route edges="E30 E01"/>
    </vehicle>
    <vehicle id="b4.13" type="bus" depart="17.29" color="yellow">
        <route edges="E40 E02"/>
    </vehicle>
    <vehicle id="p1.13" type="pkw" depart="17.29" color="red">
        <route edges="E10 E03"/>
    </vehicle>
    <vehicle id="p2.13" type="pkw" depart="17.29" color="magenta">
        <route edges="E20 E03"/>
    </vehicle>
    <vehicle id="p3.13" type="pkw" depart="17.29" color="blue">
        <route edges="E30 E01"/>
    </vehicle>
    <vehicle id="p4.13" type="pkw" depart="17.29" color="white">
        <route edges="E40 E02"/>
    </vehicle>
    <vehicle id="b1.14" type="bus" depart="18.62" color="yellow">
        <route edges="E10 E03"/>
    </vehicle>
    <vehicle id="b2.14" type="bus" depart="18.62" color="yellow">
        <route edges="E20 E03"/>
    </vehicle>
    <vehicle id="b3.14" type="bus" depart="18.62" color="yellow">
        <route edges="E30 E01"/>
    </vehicle>
    <vehicle id="b4.14" type="bus" depart="18.62" color="yellow">
        <route edges="E40 E01"/>
    </vehicle>
    <vehicle id="p1.14" type="pkw" depart="18.62" color="red">
        <route edges="E10 E03"/>
    </vehicle>
    <vehicle id="p2.14" type="pkw" depart="18.62" color="magenta">
        <route edges="E20 E03"/>
    </vehicle>
    <vehicle id="p3.14" type="pkw" depart="18.62" color="blue">
        <route edges="E30 E02"/>
    </vehicle>
    <vehicle id="p4.14" type="pkw" depart="18.62" color="white">
        <route edges="E40 E02"/>
    </vehicle>
    <vehicle id="b1.15" type="bus" depart="19.95" color="yellow">
        <route edges="E10 E03"/>
    </vehicle>
    <vehicle id="b2.15" type="bus" depart="19.95" color="yellow">
        <route edges="E20 E03"/>
    </vehicle>
    <vehicle id="b3.15" type="bus" depart="19.95" color="yellow">
        <route edges="E30 E01"/>
    </vehicle>
    <vehicle id="b4.15" type="bus" depart="19.95" color="yellow">
        <route edges="E40 E02"/>
    </vehicle>
    <vehicle id="p1.15" type="pkw" depart="19.95" color="red">
        <route edges="E10 E04"/>
    </vehicle>
    <vehicle id="p2.15" type="pkw" depart="19.95" color="magenta">
        <route edges="E20 E01"/>
    </vehicle>
    <vehicle id="p3.15" type="pkw" depart="19.95" color="blue">
        <route edges="E30 E04"/>
    </vehicle>
    <vehicle id="p4.15" type="pkw" depart="19.95" color="white">
        <route edges="E40 E03"/>
    </vehicle>
    <vehicle id="b1.16" type="bus" depart="21.28" color="yellow">
        <route edges="E10 E03"/>
    </vehicle>
    <vehicle id="b2.16" type="bus" depart="21.28" color="yellow">
        <route edges="E20 E04"/>
    </vehicle>
    <vehicle id="b3.16" type="bus" depart="21.28" color="yellow">
        <route edges="E30 E01"/>
    </vehicle>
    <vehicle id="b4.16" type="bus" depart="21.28" color="yellow">
        <route edges="E40 E02"/>
    </vehicle>
    <vehicle id="p1.16" type="pkw" depart="21.28" color="red">
        <route edges="E10 E02"/>
    </vehicle>
    <vehicle id="p2.16" type="pkw" depart="21.28" color="magenta">
        <route edges="E20 E04"/>
    </vehicle>
    <vehicle id="p3.16" type="pkw" depart="21.28" color="blue">
        <route edges="E30 E01"/>
    </vehicle>
    <vehicle id="p4.16" type="pkw" depart="21.28" color="white">
        <route edges="E40 E02"/>
    </vehicle>
    <vehicle id="b1.17" type="bus" depart="22.61" color="yellow">
        <route edges="E10 E03"/>
    </vehicle>
    <vehicle id="b2.17" type="bus" depart="22.61" color="yellow">
        <route edges="E20 E03"/>
    </vehicle>
    <vehicle id="b3.17" type="bus" depart="22.61" color="yellow">
        <route edges="E30 E02"/>
    </vehicle>
    <vehicle id="b4.17" type="bus" depart="22.61" color="yellow">
        <route edges="E40 E02"/>
    </vehicle>
    <vehicle id="p1.17" type="pkw" depart="22.61" color="red">
        <route edges="E10 E04"/>
    </vehicle>
    <vehicle id="p2.17" type="pkw" depart="22.61" color="magenta">
        <route edges="E20 E01"/>
    </vehicle>
    <vehicle id="p3.17" type="pkw" depart="22.61" color="blue">
        <route edges="E30 E01"/>
    </vehicle>
    <vehicle id="p4.17" type="pkw" depart="22.61" color="white">
        <route edges="E40 E01"/>
    </vehicle>
    <vehicle id="b1.18" type="bus" depart="23.94" color="yellow">
        <route edges="E10 E04"/>
    </vehicle>
    <vehicle id="b2.18" type="bus" depart="23.94" color="yellow">
        <route edges="E20 E01"/>
    </vehicle>
    <vehicle id="b3.18" type="bus" depart="23.94" color="yellow">
        <route edges="E30 E01"/>
    </vehicle>
    <vehicle id="b4.18" type="bus" depart="23.94" color="yellow">
        <route edges="E40 E03"/>
    </vehicle>
    <vehicle id="p1.18" type="pkw" depart="23.94" color="red">
        <route edges="E10 E02"/>
    </vehicle>
    <vehicle id="p2.18" type="pkw" depart="23.94" color="magenta">
        <route edges="E20 E04"/>
    </vehicle>
    <vehicle id="p3.18" type="pkw" depart="23.94" color="blue">
        <route edges="E30 E01"/>
    </vehicle>
    <vehicle id="p4.18" type="pkw" depart="23.94" color="white">
        <route edges="E40 E02"/>
    </vehicle>
    <vehicle id="b1.19" type="bus" depart="25.27" color="yellow">
        <route edges="E10 E03"/>
    </vehicle>
    <vehicle id="b2.19" type="bus" depart="25.27" color="yellow">
        <route edges="E20 E03"/>
    </vehicle>
    <vehicle id="b3.19" type="bus" depart="25.27" color="yellow">
        <route edges="E30 E01"/>
    </vehicle>
    <vehicle id="b4.19" type="bus" depart="25.27" color="yellow">
        <route edges="E40 E03"/>
    </vehicle>
    <vehicle id="p1.19" type="pkw" depart="25.27" color="red">
        <route edges="E10 E02"/>
    </vehicle>
    <vehicle id="p2.19" type="pkw" depart="25.27" color="magenta">
        <route edges="E20 E04"/>
    </vehicle>
    <vehicle id="p3.19" type="pkw" depart="25.27" color="blue">
        <route edges="E30 E02"/>
    </vehicle>
    <vehicle id="p4.19" type="pkw" depart="25.27" color="white">
        <route edges="E40 E02"/>
    </vehicle>
    <vehicle id="b1.20" type="bus" depart="26.60" color="yellow">
        <route edges="E10 E02"/>
    </vehicle>
    <vehicle id="b2.20" type="bus" depart="26.60" color="yellow">
        <route edges="E20 E01"/>
    </vehicle>
    <vehicle id="b3.20" type="bus" depart="26.60" color="yellow">
        <route edges="E30 E02"/>
    </vehicle>
    <vehicle id="b4.20" type="bus" depart="26.60" color="yellow">
        <route edges="E40 E02"/>
    </vehicle>
    <vehicle id="p1.20" type="pkw" depart="26.60" color="red">
        <route edges="E10 E04"/>
    </vehicle>
    <vehicle id="p2.20" type="pkw" depart="26.60" color="magenta">
        <route edges="E20 E04"/>
    </vehicle>
    <vehicle id="p3.20" type="pkw" depart="26.60" color="blue">
        <route edges="E30 E02"/>
    </vehicle>
    <vehicle id="p4.20" type="pkw" depart="26.60" color="white">
        <route edges="E40 E02"/>
    </vehicle>
    <vehicle id="b1.21" type="bus" depart="27.93" color="yellow">
        <route edges="E10 E03"/>
    </vehicle>
    <vehicle id="b2.21" type="bus" depart="27.93" color="yellow">
        <route edges="E20 E01"/>
    </vehicle>
    <vehicle id="b3.21" type="bus" depart="27.93" color="yellow">
        <route edges="E30 E01"/>
    </vehicle>
    <vehicle id="b4.21" type="bus" depart="27.93" color="yellow">
        <route edges="E40 E01"/>
    </vehicle>
    <vehicle id="p1.21" type="pkw" depart="27.93" color="red">
        <route edges="E10 E02"/>
    </vehicle>
    <vehicle id="p2.21" type="pkw" depart="27.93" color="magenta">
        <route edges="E20 E04"/>
    </vehicle>
    <vehicle id="p3.21" type="pkw" depart="27.93" color="blue">
        <route edges="E30 E01"/>
    </vehicle>
    <vehicle id="p4.21" type="pkw" depart="27.93" color="white">
        <route edges="E40 E02"/>
    </vehicle>
    <vehicle id="b1.22" type="bus" depart="29.26" color="yellow">
        <route edges="E10 E03"/>
    </vehicle>
    <vehicle id="b2.22" type="bus" depart="29.26" color="yellow">
        <route edges="E20 E04"/>
    </vehicle>
    <vehicle id="b3.22" type="bus" depart="29.26" color="yellow">
        <route edges="E30 E02"/>
    </vehicle>
    <vehicle id="b4.22" type="bus" depart="29.26" color="yellow">
        <route edges="E40 E01"/>
    </vehicle>
    <vehicle id="p1.22" type="pkw" depart="29.26" color="red">
        <route edges="E10 E03"/>
    </vehicle>
    <vehicle id="p2.22" type="pkw" depart="29.26" color="magenta">
        <route edges="E20 E03"/>
    </vehicle>
    <vehicle id="p3.22" type="pkw" depart="29.26" color="blue">
        <route edges="E30 E01"/>
    </vehicle>
    <vehicle id="p4.22" type="pkw" depart="29.26" color="white">
        <route edges="E40 E01"/>
    </vehicle>
    <vehicle id="b1.23" type="bus" depart="30.59" color="yellow">
        <route edges="E10 E02"/>
    </vehicle>
    <vehicle id="b2.23" type="bus" depart="30.59" color="yellow">
        <route edges="E20 E03"/>
    </vehicle>
    <vehicle id="b3.23" type="bus" depart="30.59" color="yellow">
        <route edges="E30 E04"/>
    </vehicle>
    <vehicle id="b4.23" type="bus" depart="30.59" color="yellow">
        <route edges="E40 E01"/>
    </vehicle>
    <vehicle id="p1.23" type="pkw" depart="30.59" color="red">
        <route edges="E10 E04"/>
    </vehicle>
    <vehicle id="p2.23" type="pkw" depart="30.59" color="magenta">
        <route edges="E20 E04"/>
    </vehicle>
    <vehicle id="p3.23" type="pkw" depart="30.59" color="blue">
        <route edges="E30 E04"/>
    </vehicle>
    <vehicle id="p4.23" type="pkw" depart="30.59" color="white">
        <route edges="E40 E03"/>
    </vehicle>
    <vehicle id="b1.24" type="bus" depart="31.92" color="yellow">
        <route edges="E10 E03"/>
    </vehicle>
    <vehicle id="b2.24" type="bus" depart="31.92" color="yellow">
        <route edges="E20 E03"/>
    </vehicle>
    <vehicle id="b3.24" type="bus" depart="31.92" color="yellow">
        <route edges="E30 E04"/>
    </vehicle>
    <vehicle id="b4.24" type="bus" depart="31.92" color="yellow">
        <route edges="E40 E03"/>
    </vehicle>
    <vehicle id="p1.24" type="pkw" depart="31.92" color="red">
        <route edges="E10 E02"/>
    </vehicle>
    <vehicle id="p2.24" type="pkw" depart="31.92" color="magenta">
        <route edges="E20 E01"/>
    </vehicle>
    <vehicle id="p3.24" type="pkw" depart="31.92" color="blue">
        <route edges="E30 E01"/>
    </vehicle>
    <vehicle id="p4.24" type="pkw" depart="31.92" color="white">
        <route edges="E40 E02"/>
    </vehicle>
    <vehicle id="b1.25" type="bus" depart="33.25" color="yellow">
        <route edges="E10 E03"/>
    </vehicle>
    <vehicle id="b2.25" type="bus" depart="33.25" color="yellow">
        <route edges="E20 E03"/>
    </vehicle>
    <vehicle id="b3.25" type="bus" depart="33.25" color="yellow">
        <route edges="E30 E01"/>
    </vehicle>
    <vehicle id="b4.25" type="bus" depart="33.25" color="yellow">
        <route edges="E40 E01"/>
    </vehicle>
    <vehicle id="p1.25" type="pkw" depart="33.25" color="red">
        <route edges="E10 E03"/>
    </vehicle>
    <vehicle id="p2.25" type="pkw" depart="33.25" color="magenta">
        <route edges="E20 E04"/>
    </vehicle>
    <vehicle id="p3.25" type="pkw" depart="33.25" color="blue">
        <route edges="E30 E01"/>
    </vehicle>
    <vehicle id="p4.25" type="pkw" depart="33.25" color="white">
        <route edges="E40 E01"/>
    </vehicle>
    <vehicle id="b1.26" type="bus" depart="34.58" color="yellow">
        <route edges="E10 E03"/>
    </vehicle>
    <vehicle id="b2.26" type="bus" depart="34.58" color="yellow">
        <route edges="E20 E03"/>
    </vehicle>
    <vehicle id="b3.26" type="bus" depart="34.58" color="yellow">
        <route edges="E30 E01"/>
    </vehicle>
    <vehicle id="b4.26" type="bus" depart="34.58" color="yellow">
        <route edges="E40 E01"/>
    </vehicle>
    <vehicle id="p1.26" type="pkw" depart="34.58" color="red">
        <route edges="E10 E03"/>
    </vehicle>
    <vehicle id="p2.26" type="pkw" depart="34.58" color="magenta">
        <route edges="E20 E04"/>
    </vehicle>
    <vehicle id="p3.26" type="pkw" depart="34.58" color="blue">
        <route edges="E30 E01"/>
    </vehicle>
    <vehicle id="p4.26" type="pkw" depart="34.58" color="white">
        <route edges="E40 E02"/>
    </vehicle>
    <vehicle id="b1.27" type="bus" depart="35.91" color="yellow">
        <route edges="E10 E02"/>
    </vehicle>
    <vehicle id="b2.27" type="bus" depart="35.91" color="yellow">
        <route edges="E20 E01"/>
    </vehicle>
    <vehicle id="b3.27" type="bus" depart="35.91" color="yellow">
        <route edges="E30 E01"/>
    </vehicle>
    <vehicle id="b4.27" type="bus" depart="35.91" color="yellow">
        <route edges="E40 E01"/>
    </vehicle>
    <vehicle id="p1.27" type="pkw" depart="35.91" color="red">
        <route edges="E10 E03"/>
    </vehicle>
    <vehicle id="p2.27" type="pkw" depart="35.91" color="magenta">
        <route edges="E20 E03"/>
    </vehicle>
    <vehicle id="p3.27" type="pkw" depart="35.91" color="blue">
        <route edges="E30 E01"/>
    </vehicle>
    <vehicle id="p4.27" type="pkw" depart="35.91" color="white">
        <route edges="E40 E01"/>
    </vehicle>
    <vehicle id="b1.28" type="bus" depart="37.24" color="yellow">
        <route edges="E10 E03"/>
    </vehicle>
    <vehicle id="b2.28" type="bus" depart="37.24" color="yellow">
        <route edges="E20 E01"/>
    </vehicle>
    <vehicle id="b3.28" type="bus" depart="37.24" color="yellow">
        <route edges="E30 E02"/>
    </vehicle>
    <vehicle id="b4.28" type="bus" depart="37.24" color="yellow">
        <route edges="E40 E01"/>
    </vehicle>
    <vehicle id="p1.28" type="pkw" depart="37.24" color="red">
        <route edges="E10 E04"/>
    </vehicle>
    <vehicle id="p2.28" type="pkw" depart="37.24" color="magenta">
        <route edges="E20 E03"/>
    </vehicle>
    <vehicle id="p3.28" type="pkw" depart="37.24" color="blue">
        <route edges="E30 E04"/>
    </vehicle>
    <vehicle id="p4.28" type="pkw" depart="37.24" color="white">
        <route edges="E40 E02"/>
    </vehicle>
    <vehicle id="b1.29" type="bus" depart="38.57" color="yellow">
        <route edges="E10 E02"/>
    </vehicle>
    <vehicle id="b2.29" type="bus" depart="38.57" color="yellow">
        <route edges="E20 E04"/>
    </vehicle>
    <vehicle id="b3.29" type="bus" depart="38.57" color="yellow">
        <route edges="E30 E01"/>
    </vehicle>
    <vehicle id="b4.29" type="bus" depart="38.57" color="yellow">
        <route edges="E40 E02"/>
    </vehicle>
    <vehicle id="p1.29" type="pkw" depart="38.57" color="red">
        <route edges="E10 E04"/>
    </vehicle>
    <vehicle id="p2.29" type="pkw" depart="38.57" color="magenta">
        <route edges="E20 E04"/>
    </vehicle>
    <vehicle id="p3.29" type="pkw" depart="38.57" color="blue">
        <route edges="E30 E02"/>
    </vehicle>
    <vehicle id="p4.29" type="pkw" depart="38.57" color="white">
        <route edges="E40 E02"/>
    </vehicle>
    <vehicle id="b1.30" type="bus" depart="39.90" color="yellow">
        <route edges="E10 E02"/>
    </vehicle>
    <vehicle id="b2.30" type="bus" depart="39.90" color="yellow">
        <route edges="E20 E03"/>
    </vehicle>
    <vehicle id="b3.30" type="bus" depart="39.90" color="yellow">
        <route edges="E30 E01"/>
    </vehicle>
    <vehicle id="b4.30" type="bus" depart="39.90" color="yellow">
        <route edges="E40 E01"/>
    </vehicle>
    <vehicle id="p1.30" type="pkw" depart="39.90" color="red">
        <route edges="E10 E02"/>
    </vehicle>
    <vehicle id="p2.30" type="pkw" depart="39.90" color="magenta">
        <route edges="E20 E03"/>
    </vehicle>
    <vehicle id="p3.30" type="pkw" depart="39.90" color="blue">
        <route edges="E30 E02"/>
    </vehicle>
    <vehicle id="p4.30" type="pkw" depart="39.90" color="white">
        <route edges="E40 E01"/>
    </vehicle>
    <vehicle id="b1.31" type="bus" depart="41.23" color="yellow">
        <route edges="E10 E03"/>
    </vehicle>
    <vehicle id="b2.31" type="bus" depart="41.23" color="yellow">
        <route edges="E20 E03"/>
    </vehicle>
    <vehicle id="b3.31" type="bus" depart="41.23" color="yellow">
        <route edges="E30 E04"/>
    </vehicle>
    <vehicle id="b4.31" type="bus" depart="41.23" color="yellow">
        <route edges="E40 E02"/>
    </vehicle>
    <vehicle id="p1.31" type="pkw" depart="41.23" color="red">
        <route edges="E10 E03"/>
    </vehicle>
    <vehicle id="p2.31" type="pkw" depart="41.23" color="magenta">
        <route edges="E20 E04"/>
    </vehicle>
    <vehicle id="p3.31" type="pkw" depart="41.23" color="blue">
        <route edges="E30 E01"/>
    </vehicle>
    <vehicle id="p4.31" type="pkw" depart="41.23" color="white">
        <route edges="E40 E02"/>
    </vehicle>
    <vehicle id="b1.32" type="bus" depart="42.56" color="yellow">
        <route edges="E10 E03"/>
    </vehicle>